14
Coordinates from ORCA-job sn2_MEP E -344.462098403187
  C      -2.155494     -0.796181     -0.308610
  C      -0.755414     -0.299651     -0.114740
  H      -2.334484     -1.661331      0.334690
  H      -2.314504     -1.056621     -1.358010
  H      -2.861084     -0.006551     -0.034740
  O       0.134416     -1.272351     -0.449580
  C       1.505176     -0.895441     -0.298560
  H       1.743236     -0.050141     -0.951480
  H       2.124516     -1.746661     -0.594390
  H       1.722446     -0.655411      0.746750
  O      -0.468764      0.821359      0.287130
  O       1.621836      2.458339      0.897070
  H       1.180276      3.280269      1.158490
  H       0.857836      1.880379      0.685980
14
Coordinates from ORCA-job sn2_MEP E -344.464617694908
  C      -2.115015     -0.634966     -0.208462
  C      -0.713608     -0.085946     -0.418101
  H      -2.182515     -1.243487      0.713156
  H      -2.378548     -1.291675     -1.064075
  H      -2.830921      0.204901     -0.179311
  O       0.230402     -0.981583     -0.018156
  C       1.622676     -0.658064     -0.290194
  H       1.679490      0.089375     -1.102250
  H       2.116277     -1.602911     -0.584256
  H       2.089305     -0.215862      0.609862
  O      -0.463510      1.008529     -0.904691
  O       1.339010      1.959115      1.302642
  H       0.897247      2.126660      0.442724
  H       0.709710      1.325913      1.701111
14
Coordinates from ORCA-job sn2_MEP E -344.455954602227
  C      -1.878684     -0.329161     -0.013421
  C      -0.524535      0.100914     -0.542823
  H      -1.775983     -0.743446      1.004612
  H      -2.219792     -1.142848     -0.687073
  H      -2.632872      0.478454     -0.022765
  O       0.453360     -0.659330      0.136047
  C       1.796847     -0.766137     -0.381952
  H       1.963651     -0.075646     -1.231448
  H       1.942429     -1.817899     -0.701540
  H       2.520184     -0.547426      0.431952
  O      -0.273145      0.872138     -1.444392
  O      -0.079772      1.640158      1.427337
  H       0.314989      2.200197      0.730593
  H       0.393325      0.790033      1.294875
14
Coordinates from ORCA-job sn2_MEP E -344.434856468075
  C      -1.887477     -0.289877      0.012937
  C      -0.568580      0.252497     -0.488991
  H      -1.751860     -0.732671      1.011941
  H      -2.134529     -1.091731     -0.711379
  H      -2.717532      0.443741      0.028188
  O       0.510486     -0.598433      0.237692
  C       1.817962     -0.781709     -0.334851
  H       1.966760     -0.096668     -1.191508
  H       1.926070     -1.834844     -0.674145
  H       2.625224     -0.596804      0.415420
  O      -0.325174      0.947699     -1.435709
  O      -0.164213      1.512667      1.259020
  H       0.298122      2.180081      0.714673
  H       0.404743      0.686053      1.156712
14
Coordinates from ORCA-job sn2_MEP E -344.417844259536
  C      -1.899337     -0.276962      0.014499
  C      -0.623627      0.367793     -0.451722
  H      -1.748036     -0.724180      1.009050
  H      -2.117897     -1.080128     -0.718143
  H      -2.751182      0.431027      0.042462
  O       0.570858     -0.593421      0.329018
  C       1.831728     -0.787308     -0.307583
  H       1.959132     -0.099282     -1.172273
  H       1.921266     -1.836723     -0.667176
  H       2.671374     -0.604441      0.406142
  O      -0.341659      0.979210     -1.443897
  O      -0.196663      1.457642      1.161518
  H       0.290828      2.174755      0.705805
  H       0.433215      0.592018      1.092300
14
Coordinates from ORCA-job sn2_MEP E -344.410530205151
  C      -1.906194     -0.269206      0.016868
  C      -0.671355      0.468452     -0.420955
  H      -1.747255     -0.719622      1.009640
  H      -2.104914     -1.069303     -0.724174
  H      -2.769843      0.423795      0.050035
  O       0.616317     -0.589562      0.400424
  C       1.843029     -0.785806     -0.287916
  H       1.951144     -0.098370     -1.160913
  H       1.915723     -1.833537     -0.657293
  H       2.698501     -0.608270      0.402191
  O      -0.351081      0.993101     -1.444881
  O      -0.231207      1.437496      1.087479
  H       0.279699      2.176887      0.693508
  H       0.477435      0.473944      1.035987
14
Coordinates from ORCA-job sn2_MEP E -344.424419920684
  C      -1.905904     -0.253542      0.024118
  C      -0.725779      0.600425     -0.369134
  H      -1.746943     -0.716402      1.012787
  H      -2.085990     -1.047706     -0.725368
  H      -2.788700      0.413628      0.057308
  O       0.658357     -0.617842      0.468279
  C       1.860965     -0.782522     -0.268037
  H       1.950993     -0.093381     -1.148412
  H       1.906825     -1.828102     -0.645500
  H       2.735038     -0.615262      0.396850
  O      -0.359317      1.008083     -1.437971
  O      -0.316370      1.447122      0.982496
  H       0.257834      2.179106      0.667354
  H       0.558991      0.306396      0.985230
14
Coordinates from ORCA-job sn2_MEP E -344.450121023493
  C      -1.922808     -0.217883      0.027616
  C      -0.809798      0.755275     -0.317796
  H      -1.745622     -0.700151      1.006590
  H      -2.039758     -1.003738     -0.744481
  H      -2.848257      0.392270      0.083214
  O       0.727544     -0.729153      0.533078
  C       1.910028     -0.803652     -0.246730
  H       1.894842     -0.110844     -1.129059
  H       1.966156     -1.831696     -0.651705
  H       2.797908     -0.639491      0.406844
  O      -0.384971      1.063704     -1.408869
  O      -0.435623      1.500750      0.875904
  H       0.222239      2.173163      0.586857
  H       0.668121      0.151444      0.978537
14
Coordinates from ORCA-job sn2_MEP E -344.461983055234
  C      -1.993165     -0.129040      0.057517
  C      -1.124255      1.054852     -0.311439
  H      -1.665021     -0.601638      0.997525
  H      -1.961495     -0.866466     -0.765399
  H      -3.038972      0.224230      0.169704
  O       0.847080     -0.961397      0.444062
  C       2.125817     -1.002737     -0.173369
  H       2.231815     -0.296767     -1.032185
  H       2.284390     -2.026102     -0.568207
  H       2.960351     -0.792849      0.536392
  O      -1.020314      1.557125     -1.415120
  O      -0.432659      1.565484      0.780463
  H       0.061525      2.348137      0.442742
  H       0.724904     -0.072833      0.837316
14
Coordinates from ORCA-job sn2_MEP E -344.455953333025
  C      -2.398835      0.114372      0.115786
  C      -1.474550      1.260227     -0.141840
  H      -2.186062     -0.326167      1.094847
  H      -2.291040     -0.634691     -0.673937
  H      -3.429468      0.481418      0.127235
  O       1.276308     -1.458941      0.204915
  C       2.608896     -1.054524     -0.052458
  H       2.661423     -0.565291     -1.030074
  H       3.254637     -1.936995     -0.054044
  H       2.939222     -0.364204      0.729798
  O      -1.782049      2.365559     -0.555281
  O      -0.182973      0.957786      0.106120
  H       0.272633      1.806529     -0.096608
  H       0.731859     -0.645078      0.225540
