14
* (null), Energy   -1000.0000000
C    -1.913188   -0.259485    0.010740    0.000792   -0.008815   -0.004706
C    -0.630816    0.419561   -0.382170   -0.116194    0.283114    0.110939
H    -1.862808   -0.648591    1.040415   -0.015248    0.018660    0.006582
H    -2.096467   -1.092949   -0.695671    0.023011    0.010832   -0.030133
H    -2.741977    0.470831   -0.073638   -0.020332   -0.026585    0.025365
O     0.643643   -0.616225    0.452571    0.065933   -0.034200    0.090617
C     1.837987   -0.766207   -0.308269    0.045903    0.008100    0.005491
H     1.833074   -0.090234   -1.195129   -0.057742    0.012009    0.023881
H     1.932793   -1.813993   -0.666358   -0.076694    0.006771    0.059986
H     2.729464   -0.526651    0.311614    0.045804   -0.013424   -0.020714
O    -0.270809    0.915846   -1.410543    0.007608   -0.020687   -0.004313
O    -0.228261    1.404762    1.113336   -0.053796   -0.054001   -0.127521
H     0.262198    2.161004    0.725856   -0.157162    0.028121   -0.108890
H     0.505166    0.442330    1.077246    0.773106   -1.673097   -0.633175
14
* Frequency(6) -974.3113
C    -1.913098   -0.260487    0.010206    0.000792   -0.008815   -0.004706
C    -0.644021    0.451736   -0.369562   -0.116194    0.283114    0.110939
H    -1.864541   -0.646470    1.041163   -0.015248    0.018660    0.006582
H    -2.093852   -1.091718   -0.699096    0.023011    0.010832   -0.030133
H    -2.744287    0.467810   -0.070755   -0.020332   -0.026585    0.025365
O     0.651136   -0.620111    0.462869    0.065933   -0.034200    0.090617
C     1.843203   -0.765287   -0.307645    0.045903    0.008100    0.005491
H     1.826512   -0.088869   -1.192415   -0.057742    0.012009    0.023881
H     1.924077   -1.813223   -0.659541   -0.076694    0.006771    0.059986
H     2.734669   -0.528177    0.309260    0.045804   -0.013424   -0.020714
O    -0.269944    0.913495   -1.411033    0.007608   -0.020687   -0.004313
O    -0.234375    1.398625    1.098844   -0.053796   -0.054001   -0.127521
H     0.244337    2.164200    0.713482   -0.157162    0.028121   -0.108890
H     0.593026    0.252191    1.005289    0.773106   -1.673097   -0.633175
14
* Frequency(6) -974.3113
C    -1.913018   -0.261380    0.009729    0.000792   -0.008815   -0.004706
C    -0.655795    0.480424   -0.358321   -0.116194    0.283114    0.110939
H    -1.866086   -0.644579    1.041830   -0.015248    0.018660    0.006582
H    -2.091520   -1.090620   -0.702149    0.023011    0.010832   -0.030133
H    -2.746347    0.465116   -0.068185   -0.020332   -0.026585    0.025365
O     0.657817   -0.623577    0.472051    0.065933   -0.034200    0.090617
C     1.847855   -0.764466   -0.307089    0.045903    0.008100    0.005491
H     1.820661   -0.087652   -1.189995   -0.057742    0.012009    0.023881
H     1.916306   -1.812537   -0.653463   -0.076694    0.006771    0.059986
H     2.739311   -0.529537    0.307161    0.045804   -0.013424   -0.020714
O    -0.269173    0.911399   -1.411470    0.007608   -0.020687   -0.004313
O    -0.239826    1.393153    1.085922   -0.053796   -0.054001   -0.127521
H     0.228412    2.167049    0.702448   -0.157162    0.028121   -0.108890
H     0.671365    0.082657    0.941130    0.773106   -1.673097   -0.633175
14
* Frequency(6) -974.3113
C    -1.912956   -0.262068    0.009362    0.000792   -0.008815   -0.004706
C    -0.664862    0.502516   -0.349664   -0.116194    0.283114    0.110939
H    -1.867276   -0.643123    1.042344   -0.015248    0.018660    0.006582
H    -2.089724   -1.089775   -0.704500    0.023011    0.010832   -0.030133
H    -2.747934    0.463042   -0.066206   -0.020332   -0.026585    0.025365
O     0.662962   -0.626245    0.479123    0.065933   -0.034200    0.090617
C     1.851437   -0.763834   -0.306660    0.045903    0.008100    0.005491
H     1.816155   -0.086715   -1.188132   -0.057742    0.012009    0.023881
H     1.910321   -1.812009   -0.648782   -0.076694    0.006771    0.059986
H     2.742885   -0.530584    0.305545    0.045804   -0.013424   -0.020714
O    -0.268580    0.909785   -1.411807    0.007608   -0.020687   -0.004313
O    -0.244024    1.388939    1.075971   -0.053796   -0.054001   -0.127521
H     0.216148    2.169244    0.693951   -0.157162    0.028121   -0.108890
H     0.731693   -0.047901    0.891721    0.773106   -1.673097   -0.633175
14
* Frequency(6) -974.3113
C    -1.912920   -0.262476    0.009144    0.000792   -0.008815   -0.004706
C    -0.670240    0.515619   -0.344529   -0.116194    0.283114    0.110939
H    -1.867981   -0.642260    1.042648   -0.015248    0.018660    0.006582
H    -2.088659   -1.089274   -0.705895    0.023011    0.010832   -0.030133
H    -2.748875    0.461811   -0.065032   -0.020332   -0.026585    0.025365
O     0.666014   -0.627828    0.483316    0.065933   -0.034200    0.090617
C     1.853561   -0.763459   -0.306406    0.045903    0.008100    0.005491
H     1.813483   -0.086160   -1.187026   -0.057742    0.012009    0.023881
H     1.906772   -1.811695   -0.646006   -0.076694    0.006771    0.059986
H     2.745005   -0.531206    0.304586    0.045804   -0.013424   -0.020714
O    -0.268228    0.908827   -1.412006    0.007608   -0.020687   -0.004313
O    -0.246513    1.386440    1.070069   -0.053796   -0.054001   -0.127521
H     0.208874    2.170545    0.688911   -0.157162    0.028121   -0.108890
H     0.767474   -0.125335    0.862416    0.773106   -1.673097   -0.633175
14
* Frequency(6) -974.3113
C    -1.912912   -0.262560    0.009099    0.000792   -0.008815   -0.004706
C    -0.671345    0.518313   -0.343474   -0.116194    0.283114    0.110939
H    -1.868127   -0.642082    1.042711   -0.015248    0.018660    0.006582
H    -2.088440   -1.089171   -0.706182    0.023011    0.010832   -0.030133
H    -2.749068    0.461558   -0.064790   -0.020332   -0.026585    0.025365
O     0.666641   -0.628154    0.484179    0.065933   -0.034200    0.090617
C     1.853998   -0.763382   -0.306354    0.045903    0.008100    0.005491
H     1.812933   -0.086045   -1.186799   -0.057742    0.012009    0.023881
H     1.906042   -1.811631   -0.645435   -0.076694    0.006771    0.059986
H     2.745440   -0.531333    0.304389    0.045804   -0.013424   -0.020714
O    -0.268155    0.908630   -1.412047    0.007608   -0.020687   -0.004313
O    -0.247025    1.385926    1.068856   -0.053796   -0.054001   -0.127521
H     0.207379    2.170813    0.687875   -0.157162    0.028121   -0.108890
H     0.774830   -0.141254    0.856392    0.773106   -1.673097   -0.633175
14
* Frequency(6) -974.3113
C    -1.912935   -0.262311    0.009232    0.000792   -0.008815   -0.004706
C    -0.668059    0.510305   -0.346612   -0.116194    0.283114    0.110939
H    -1.867695   -0.642610    1.042525   -0.015248    0.018660    0.006582
H    -2.089091   -1.089477   -0.705329    0.023011    0.010832   -0.030133
H    -2.748493    0.462310   -0.065508   -0.020332   -0.026585    0.025365
O     0.664776   -0.627186    0.481616    0.065933   -0.034200    0.090617
C     1.852699   -0.763611   -0.306509    0.045903    0.008100    0.005491
H     1.814567   -0.086385   -1.187475   -0.057742    0.012009    0.023881
H     1.908211   -1.811822   -0.647132   -0.076694    0.006771    0.059986
H     2.744145   -0.530954    0.304975    0.045804   -0.013424   -0.020714
O    -0.268370    0.909216   -1.411925    0.007608   -0.020687   -0.004313
O    -0.245504    1.387454    1.072463   -0.053796   -0.054001   -0.127521
H     0.211824    2.170017    0.690955   -0.157162    0.028121   -0.108890
H     0.752963   -0.093932    0.874300    0.773106   -1.673097   -0.633175
14
* Frequency(6) -974.3113
C    -1.912985   -0.261755    0.009529    0.000792   -0.008815   -0.004706
C    -0.660737    0.492464   -0.353603   -0.116194    0.283114    0.110939
H    -1.866734   -0.643786    1.042110   -0.015248    0.018660    0.006582
H    -2.090541   -1.090160   -0.703430    0.023011    0.010832   -0.030133
H    -2.747212    0.463985   -0.067106   -0.020332   -0.026585    0.025365
O     0.660621   -0.625031    0.475905    0.065933   -0.034200    0.090617
C     1.849807   -0.764121   -0.306855    0.045903    0.008100    0.005491
H     1.818205   -0.087142   -1.188979   -0.057742    0.012009    0.023881
H     1.913044   -1.812249   -0.650912   -0.076694    0.006771    0.059986
H     2.741259   -0.530108    0.306280    0.045804   -0.013424   -0.020714
O    -0.268850    0.910519   -1.411654    0.007608   -0.020687   -0.004313
O    -0.242114    1.390857    1.080499   -0.053796   -0.054001   -0.127521
H     0.221728    2.168245    0.697817   -0.157162    0.028121   -0.108890
H     0.704244    0.011502    0.914201    0.773106   -1.673097   -0.633175
14
* Frequency(6) -974.3113
C    -1.913057   -0.260954    0.009956    0.000792   -0.008815   -0.004706
C    -0.650172    0.466723   -0.363690   -0.116194    0.283114    0.110939
H    -1.865348   -0.645482    1.041511   -0.015248    0.018660    0.006582
H    -2.092634   -1.091145   -0.700691    0.023011    0.010832   -0.030133
H    -2.745363    0.466403   -0.069412   -0.020332   -0.026585    0.025365
O     0.654627   -0.621922    0.467666    0.065933   -0.034200    0.090617
C     1.845633   -0.764858   -0.307355    0.045903    0.008100    0.005491
H     1.823455   -0.088234   -1.191151   -0.057742    0.012009    0.023881
H     1.920018   -1.812865   -0.656366   -0.076694    0.006771    0.059986
H     2.737094   -0.528887    0.308163    0.045804   -0.013424   -0.020714
O    -0.269541    0.912400   -1.411261    0.007608   -0.020687   -0.004313
O    -0.237222    1.395767    1.092093   -0.053796   -0.054001   -0.127521
H     0.236017    2.165688    0.707717   -0.157162    0.028121   -0.108890
H     0.633952    0.163623    0.971771    0.773106   -1.673097   -0.633175
14
* Frequency(6) -974.3113
C    -1.913143   -0.259993    0.010469    0.000792   -0.008815   -0.004706
C    -0.637510    0.435871   -0.375779   -0.116194    0.283114    0.110939
H    -1.863686   -0.647516    1.040794   -0.015248    0.018660    0.006582
H    -2.095141   -1.092325   -0.697407    0.023011    0.010832   -0.030133
H    -2.743148    0.469300   -0.072177   -0.020332   -0.026585    0.025365
O     0.647442   -0.618195    0.457791    0.065933   -0.034200    0.090617
C     1.840631   -0.765741   -0.307953    0.045903    0.008100    0.005491
H     1.829748   -0.089542   -1.193753   -0.057742    0.012009    0.023881
H     1.928375   -1.813603   -0.662903   -0.076694    0.006771    0.059986
H     2.732103   -0.527424    0.310421    0.045804   -0.013424   -0.020714
O    -0.270370    0.914654   -1.410792    0.007608   -0.020687   -0.004313
O    -0.231360    1.401651    1.105990   -0.053796   -0.054001   -0.127521
H     0.253144    2.162624    0.719584   -0.157162    0.028121   -0.108890
H     0.549704    0.345946    1.040770    0.773106   -1.673097   -0.633175
14
* Frequency(6) -974.3113
C    -1.913234   -0.258977    0.011011    0.000792   -0.008815   -0.004706
C    -0.624123    0.403252   -0.388561   -0.116194    0.283114    0.110939
H    -1.861929   -0.649666    1.040036   -0.015248    0.018660    0.006582
H    -2.097792   -1.093573   -0.693935    0.023011    0.010832   -0.030133
H    -2.740805    0.472363   -0.075099   -0.020332   -0.026585    0.025365
O     0.639845   -0.614254    0.447351    0.065933   -0.034200    0.090617
C     1.835342   -0.766674   -0.308586    0.045903    0.008100    0.005491
H     1.836400   -0.090926   -1.196505   -0.057742    0.012009    0.023881
H     1.937211   -1.814383   -0.669814   -0.076694    0.006771    0.059986
H     2.726825   -0.525878    0.312807    0.045804   -0.013424   -0.020714
O    -0.271247    0.917038   -1.410295    0.007608   -0.020687   -0.004313
O    -0.225162    1.407873    1.120682   -0.053796   -0.054001   -0.127521
H     0.271252    2.159384    0.732129   -0.157162    0.028121   -0.108890
H     0.460629    0.538714    1.113722    0.773106   -1.673097   -0.633175
14
* Frequency(6) -974.3113
C    -1.913320   -0.258017    0.011524    0.000792   -0.008815   -0.004706
C    -0.611461    0.372400   -0.400650   -0.116194    0.283114    0.110939
H    -1.860268   -0.651699    1.039319   -0.015248    0.018660    0.006582
H    -2.100300   -1.094754   -0.690652    0.023011    0.010832   -0.030133
H    -2.738590    0.475260   -0.077863   -0.020332   -0.026585    0.025365
O     0.632660   -0.610528    0.437476    0.065933   -0.034200    0.090617
C     1.830340   -0.767557   -0.309184    0.045903    0.008100    0.005491
H     1.842693   -0.092234   -1.199107   -0.057742    0.012009    0.023881
H     1.945569   -1.815121   -0.676351   -0.076694    0.006771    0.059986
H     2.721834   -0.524415    0.315065    0.045804   -0.013424   -0.020714
O    -0.272076    0.919292   -1.409825    0.007608   -0.020687   -0.004313
O    -0.219300    1.413758    1.134578   -0.053796   -0.054001   -0.127521
H     0.288378    2.156319    0.743995   -0.157162    0.028121   -0.108890
H     0.376381    0.721037    1.182722    0.773106   -1.673097   -0.633175
14
* Frequency(6) -974.3113
C    -1.913392   -0.257215    0.011952    0.000792   -0.008815   -0.004706
C    -0.600896    0.346659   -0.410737   -0.116194    0.283114    0.110939
H    -1.858881   -0.653396    1.038720   -0.015248    0.018660    0.006582
H    -2.102392   -1.095738   -0.687912    0.023011    0.010832   -0.030133
H    -2.736741    0.477677   -0.080169   -0.020332   -0.026585    0.025365
O     0.626665   -0.607418    0.429237    0.065933   -0.034200    0.090617
C     1.826167   -0.768293   -0.309683    0.045903    0.008100    0.005491
H     1.847943   -0.093326   -1.201279   -0.057742    0.012009    0.023881
H     1.952542   -1.815737   -0.681805   -0.076694    0.006771    0.059986
H     2.717669   -0.523194    0.316948    0.045804   -0.013424   -0.020714
O    -0.272768    0.921173   -1.409433    0.007608   -0.020687   -0.004313
O    -0.214408    1.418668    1.146173   -0.053796   -0.054001   -0.127521
H     0.302668    2.153762    0.753896   -0.157162    0.028121   -0.108890
H     0.306089    0.873158    1.240291    0.773106   -1.673097   -0.633175
14
* Frequency(6) -974.3113
C    -1.913442   -0.256660    0.012249    0.000792   -0.008815   -0.004706
C    -0.593574    0.328818   -0.417728   -0.116194    0.283114    0.110939
H    -1.857920   -0.654572    1.038305   -0.015248    0.018660    0.006582
H    -2.103842   -1.096421   -0.686013    0.023011    0.010832   -0.030133
H    -2.735460    0.479352   -0.081768   -0.020332   -0.026585    0.025365
O     0.622511   -0.605263    0.423526    0.065933   -0.034200    0.090617
C     1.823274   -0.768804   -0.310029    0.045903    0.008100    0.005491
H     1.851581   -0.094083   -1.202784   -0.057742    0.012009    0.023881
H     1.957375   -1.816163   -0.685585   -0.076694    0.006771    0.059986
H     2.714783   -0.522349    0.318253    0.045804   -0.013424   -0.020714
O    -0.273247    0.922477   -1.409161    0.007608   -0.020687   -0.004313
O    -0.211018    1.422071    1.154209   -0.053796   -0.054001   -0.127521
H     0.312572    2.151990    0.760758   -0.157162    0.028121   -0.108890
H     0.257370    0.978592    1.280192    0.773106   -1.673097   -0.633175
14
* Frequency(6) -974.3113
C    -1.913465   -0.256411    0.012382    0.000792   -0.008815   -0.004706
C    -0.590287    0.320810   -0.420866   -0.116194    0.283114    0.110939
H    -1.857489   -0.655099    1.038119   -0.015248    0.018660    0.006582
H    -2.104493   -1.096727   -0.685161    0.023011    0.010832   -0.030133
H    -2.734885    0.480104   -0.082485   -0.020332   -0.026585    0.025365
O     0.620646   -0.604296    0.420963    0.065933   -0.034200    0.090617
C     1.821976   -0.769033   -0.310185    0.045903    0.008100    0.005491
H     1.853215   -0.094423   -1.203459   -0.057742    0.012009    0.023881
H     1.959544   -1.816355   -0.687282   -0.076694    0.006771    0.059986
H     2.713487   -0.521969    0.318839    0.045804   -0.013424   -0.020714
O    -0.273462    0.923062   -1.409039    0.007608   -0.020687   -0.004313
O    -0.209497    1.423598    1.157816   -0.053796   -0.054001   -0.127521
H     0.317017    2.151195    0.763838   -0.157162    0.028121   -0.108890
H     0.235503    1.025914    1.298101    0.773106   -1.673097   -0.633175
14
* Frequency(6) -974.3113
C    -1.913457   -0.256494    0.012337    0.000792   -0.008815   -0.004706
C    -0.591393    0.323504   -0.419811   -0.116194    0.283114    0.110939
H    -1.857634   -0.654922    1.038182   -0.015248    0.018660    0.006582
H    -2.104274   -1.096624   -0.685447    0.023011    0.010832   -0.030133
H    -2.735078    0.479851   -0.082244   -0.020332   -0.026585    0.025365
O     0.621273   -0.604621    0.421825    0.065933   -0.034200    0.090617
C     1.822412   -0.768956   -0.310132    0.045903    0.008100    0.005491
H     1.852665   -0.094308   -1.203232   -0.057742    0.012009    0.023881
H     1.958815   -1.816290   -0.686711   -0.076694    0.006771    0.059986
H     2.713923   -0.522097    0.318642    0.045804   -0.013424   -0.020714
O    -0.273390    0.922865   -1.409080    0.007608   -0.020687   -0.004313
O    -0.210009    1.423084    1.156602   -0.053796   -0.054001   -0.127521
H     0.315521    2.151463    0.762802   -0.157162    0.028121   -0.108890
H     0.242859    1.009996    1.292076    0.773106   -1.673097   -0.633175
14
* Frequency(6) -974.3113
C    -1.913420   -0.256902    0.012119    0.000792   -0.008815   -0.004706
C    -0.596771    0.336607   -0.414676   -0.116194    0.283114    0.110939
H    -1.858340   -0.654058    1.038487   -0.015248    0.018660    0.006582
H    -2.103209   -1.096123   -0.686842    0.023011    0.010832   -0.030133
H    -2.736019    0.478621   -0.081070   -0.020332   -0.026585    0.025365
O     0.624325   -0.606204    0.426019    0.065933   -0.034200    0.090617
C     1.824537   -0.768581   -0.309878    0.045903    0.008100    0.005491
H     1.849993   -0.093753   -1.202127   -0.057742    0.012009    0.023881
H     1.955265   -1.815977   -0.683935   -0.076694    0.006771    0.059986
H     2.716043   -0.522718    0.317683    0.045804   -0.013424   -0.020714
O    -0.273038    0.921907   -1.409279    0.007608   -0.020687   -0.004313
O    -0.212498    1.420585    1.150700   -0.053796   -0.054001   -0.127521
H     0.308248    2.152764    0.757762   -0.157162    0.028121   -0.108890
H     0.278640    0.932562    1.262772    0.773106   -1.673097   -0.633175
14
* Frequency(6) -974.3113
C    -1.913359   -0.257590    0.011752    0.000792   -0.008815   -0.004706
C    -0.605838    0.358699   -0.406019   -0.116194    0.283114    0.110939
H    -1.859530   -0.652602    1.039000   -0.015248    0.018660    0.006582
H    -2.101413   -1.095278   -0.689193    0.023011    0.010832   -0.030133
H    -2.737606    0.476546   -0.079091   -0.020332   -0.026585    0.025365
O     0.629470   -0.608873    0.433090    0.065933   -0.034200    0.090617
C     1.828119   -0.767949   -0.309450    0.045903    0.008100    0.005491
H     1.845487   -0.092815   -1.200263   -0.057742    0.012009    0.023881
H     1.949280   -1.815449   -0.679254   -0.076694    0.006771    0.059986
H     2.719617   -0.523765    0.316067    0.045804   -0.013424   -0.020714
O    -0.272444    0.920293   -1.409616    0.007608   -0.020687   -0.004313
O    -0.216696    1.416371    1.140749   -0.053796   -0.054001   -0.127521
H     0.295984    2.154958    0.749265   -0.157162    0.028121   -0.108890
H     0.338968    0.802003    1.213363    0.773106   -1.673097   -0.633175
14
* Frequency(6) -974.3113
C    -1.913278   -0.258483    0.011275    0.000792   -0.008815   -0.004706
C    -0.617612    0.387387   -0.394778   -0.116194    0.283114    0.110939
H    -1.861075   -0.650711    1.039667   -0.015248    0.018660    0.006582
H    -2.099082   -1.094180   -0.692247    0.023011    0.010832   -0.030133
H    -2.739666    0.473852   -0.076520   -0.020332   -0.026585    0.025365
O     0.636151   -0.612338    0.442273    0.065933   -0.034200    0.090617
C     1.832770   -0.767128   -0.308893    0.045903    0.008100    0.005491
H     1.839636   -0.091599   -1.197843   -0.057742    0.012009    0.023881
H     1.941509   -1.814762   -0.673175   -0.076694    0.006771    0.059986
H     2.724259   -0.525126    0.313968    0.045804   -0.013424   -0.020714
O    -0.271673    0.918197   -1.410053    0.007608   -0.020687   -0.004313
O    -0.222147    1.410899    1.127828   -0.053796   -0.054001   -0.127521
H     0.280058    2.157808    0.738231   -0.157162    0.028121   -0.108890
H     0.417307    0.632469    1.149203    0.773106   -1.673097   -0.633175
14
* Frequency(6) -974.3113
C    -1.913188   -0.259485    0.010740    0.000792   -0.008815   -0.004706
C    -0.630816    0.419561   -0.382170   -0.116194    0.283114    0.110939
H    -1.862808   -0.648591    1.040415   -0.015248    0.018660    0.006582
H    -2.096467   -1.092949   -0.695671    0.023011    0.010832   -0.030133
H    -2.741977    0.470831   -0.073638   -0.020332   -0.026585    0.025365
O     0.643643   -0.616225    0.452571    0.065933   -0.034200    0.090617
C     1.837987   -0.766207   -0.308269    0.045903    0.008100    0.005491
H     1.833074   -0.090234   -1.195129   -0.057742    0.012009    0.023881
H     1.932793   -1.813993   -0.666358   -0.076694    0.006771    0.059986
H     2.729464   -0.526651    0.311614    0.045804   -0.013424   -0.020714
O    -0.270809    0.915846   -1.410543    0.007608   -0.020687   -0.004313
O    -0.228261    1.404762    1.113336   -0.053796   -0.054001   -0.127521
H     0.262198    2.161004    0.725856   -0.157162    0.028121   -0.108890
H     0.505166    0.442330    1.077246    0.773106   -1.673097   -0.633175
