10
Coordinates from ORCA-job sn2_MEP E -192.940333677581
  O      -0.528079     -0.943062      1.524359
  C       1.142319     -0.606607     -0.171395
  C      -0.183500     -0.327509      0.527738
  C      -1.054685      0.763692     -0.084416
  H       1.804780      0.265432     -0.066418
  H       1.624339     -1.482586      0.271719
  H       0.992105     -0.762172     -1.248829
  H      -1.396267      0.449204     -1.081643
  H      -0.478792      1.689255     -0.224648
  H      -1.922220      0.954353      0.553532
10
Coordinates from ORCA-job sn2_MEP E -192.926064506630
  O      -0.778824     -1.134038      1.041690
  C       1.216180     -0.600251     -0.140609
  C      -0.212342     -0.341682      0.301492
  C      -1.027768      0.887852     -0.064805
  H       1.793089      0.308914     -0.389342
  H       1.713587     -1.175717      0.663245
  H       1.172504     -1.244415     -1.042965
  H      -1.707561      0.702870     -0.920289
  H      -0.478455      1.838918     -0.268026
  H      -1.690410      0.757550      0.819609
10
Coordinates from ORCA-job sn2_MEP E -192.888217461672
  O      -0.837318     -1.038369      1.014242
  C       1.214282     -0.599322     -0.126781
  C      -0.204267     -0.280900      0.269295
  C      -0.999918      0.936132     -0.072728
  H       1.808294      0.294964     -0.385632
  H       1.695230     -1.170641      0.690139
  H       1.160366     -1.252095     -1.021781
  H      -1.755793      0.743452     -0.855349
  H      -0.440407      1.877677     -0.364305
  H      -1.640469      0.489101      0.852900
10
Coordinates from ORCA-job sn2_MEP E -192.853614499456
  O      -0.889473     -0.976585      1.010136
  C       1.206838     -0.599228     -0.119067
  C      -0.203442     -0.233007      0.254147
  C      -0.959409      0.967916     -0.105060
  H       1.807411      0.289363     -0.386999
  H       1.693901     -1.166194      0.696943
  H       1.156756     -1.253174     -1.014419
  H      -1.771259      0.755589     -0.825100
  H      -0.408712      1.897556     -0.409764
  H      -1.632612      0.317764      0.899183
10
Coordinates from ORCA-job sn2_MEP E -192.841367924168
  O      -0.940944     -0.925616      1.012014
  C       1.201888     -0.598531     -0.112704
  C      -0.199457     -0.187806      0.241559
  C      -0.916688      0.989165     -0.145097
  H       1.805558      0.287515     -0.385088
  H       1.694147     -1.166617      0.699245
  H       1.153613     -1.250695     -1.012045
  H      -1.781916      0.761995     -0.798327
  H      -0.386734      1.909320     -0.442322
  H      -1.629468      0.181271      0.942766
10
Coordinates from ORCA-job sn2_MEP E -192.854472278504
  O      -0.994930     -0.879621      1.012334
  C       1.198765     -0.596250     -0.105667
  C      -0.191341     -0.147199      0.228048
  C      -0.878013      0.999500     -0.191096
  H       1.806356      0.286735     -0.383691
  H       1.694648     -1.167193      0.701782
  H       1.151516     -1.247830     -1.008602
  H      -1.795588      0.773341     -0.769469
  H      -0.367724      1.919418     -0.469894
  H      -1.623689      0.059098      0.986255
10
Coordinates from ORCA-job sn2_MEP E -192.874446391868
  O      -1.023058     -0.861251      0.996107
  C       1.198196     -0.590341     -0.096151
  C      -0.189202     -0.113324      0.217000
  C      -0.835566      1.006783     -0.255130
  H       1.809728      0.285388     -0.384509
  H       1.694634     -1.162059      0.710817
  H       1.149489     -1.246673     -0.997803
  H      -1.820273      0.805124     -0.716356
  H      -0.336514      1.933570     -0.514068
  H      -1.647434     -0.057216      1.040093
10
Coordinates from ORCA-job sn2_MEP E -192.895514023595
  O      -1.012403     -0.883439      0.966205
  C       1.196763     -0.572420     -0.084581
  C      -0.195240     -0.083144      0.203789
  C      -0.799205      1.017478     -0.325201
  H       1.826732      0.288693     -0.375131
  H       1.679820     -1.148124      0.728920
  H       1.147252     -1.236354     -0.979299
  H      -1.857539      0.896852     -0.611012
  H      -0.275401      1.921945     -0.628375
  H      -1.710778     -0.201488      1.104684
10
Coordinates from ORCA-job sn2_MEP E -192.912719977492
  O      -0.977330     -0.930332      0.928584
  C       1.188411     -0.546189     -0.081181
  C      -0.217329     -0.065169      0.175477
  C      -0.778758      1.041030     -0.368729
  H       1.831295      0.300448     -0.383958
  H       1.646612     -1.082154      0.773409
  H       1.159137     -1.255578     -0.937427
  H      -1.876234      1.094737     -0.437994
  H      -0.192247      1.856039     -0.802728
  H      -1.783556     -0.412831      1.134548
10
Coordinates from ORCA-job sn2_MEP E -192.919418825590
  O      -0.967587     -1.018743      0.805962
  C       1.170317     -0.532066     -0.102602
  C      -0.241361     -0.067501      0.109160
  C      -0.750776      1.101973     -0.309576
  H       1.748692      0.216479     -0.652609
  H       1.659117     -0.722072      0.863262
  H       1.181201     -1.476404     -0.664674
  H      -1.787796      1.379240     -0.122750
  H      -0.133449      1.810073     -0.853216
  H      -1.878358     -0.690978      0.927044
