10
* (null), Energy   -1000.0000000
O    -0.482727   -1.119081    0.489465    0.086787    0.004517   -0.014332
C     1.471376    0.235319   -0.018678    0.003232    0.002765   -0.007085
C    -0.004370    0.033465    0.117891    0.011216   -0.120109    0.016562
C    -1.071333    0.963160   -0.058734   -0.077743   -0.048303    0.027317
H     1.744797    1.222978    0.374672   -0.000878    0.004422   -0.000708
H     2.039806   -0.543125    0.499035   -0.011082   -0.006392   -0.019593
H     1.740539    0.235675   -1.085170    0.000193    0.013188   -0.010777
H    -1.727836    0.699824   -0.895742    0.267470    0.149292   -0.315022
H    -0.916345    2.039105    0.039515   -0.147384   -0.035794    0.222209
H    -1.526787   -0.333639    0.604917   -0.731590    1.777390   -0.087053
10
* Frequency(6) -1944.9111
O    -0.472864   -1.118568    0.487836    0.086787    0.004517   -0.014332
C     1.471743    0.235634   -0.019483    0.003232    0.002765   -0.007085
C    -0.003095    0.019815    0.119774    0.011216   -0.120109    0.016562
C    -1.080168    0.957670   -0.055629   -0.077743   -0.048303    0.027317
H     1.744697    1.223480    0.374591   -0.000878    0.004422   -0.000708
H     2.038547   -0.543851    0.496808   -0.011082   -0.006392   -0.019593
H     1.740561    0.237174   -1.086395    0.000193    0.013188   -0.010777
H    -1.697439    0.716790   -0.931543    0.267470    0.149292   -0.315022
H    -0.933095    2.035037    0.064767   -0.147384   -0.035794    0.222209
H    -1.609929   -0.131648    0.595024   -0.731590    1.777390   -0.087053
10
* Frequency(6) -1944.9111
O    -0.464070   -1.118110    0.486384    0.086787    0.004517   -0.014332
C     1.472070    0.235914   -0.020201    0.003232    0.002765   -0.007085
C    -0.001959    0.007644    0.121452    0.011216   -0.120109    0.016562
C    -1.088046    0.952776   -0.052861   -0.077743   -0.048303    0.027317
H     1.744608    1.223928    0.374520   -0.000878    0.004422   -0.000708
H     2.037424   -0.544499    0.494823   -0.011082   -0.006392   -0.019593
H     1.740581    0.238510   -1.087487    0.000193    0.013188   -0.010777
H    -1.670336    0.731918   -0.963464    0.267470    0.149292   -0.315022
H    -0.948029    2.031410    0.087284   -0.147384   -0.035794    0.222209
H    -1.684060    0.048454    0.586203   -0.731590    1.777390   -0.087053
10
* Frequency(6) -1944.9111
O    -0.457298   -1.117758    0.485266    0.086787    0.004517   -0.014332
C     1.472323    0.236129   -0.020754    0.003232    0.002765   -0.007085
C    -0.001084   -0.001728    0.122744    0.011216   -0.120109    0.016562
C    -1.094112    0.949007   -0.050729   -0.077743   -0.048303    0.027317
H     1.744540    1.224273    0.374464   -0.000878    0.004422   -0.000708
H     2.036559   -0.544998    0.493294   -0.011082   -0.006392   -0.019593
H     1.740596    0.239539   -1.088328    0.000193    0.013188   -0.010777
H    -1.649465    0.743568   -0.988046    0.267470    0.149292   -0.315022
H    -0.959530    2.028617    0.104624   -0.147384   -0.035794    0.222209
H    -1.741149    0.187151    0.579410   -0.731590    1.777390   -0.087053
10
* Frequency(6) -1944.9111
O    -0.453281   -1.117549    0.484602    0.086787    0.004517   -0.014332
C     1.472472    0.236257   -0.021082    0.003232    0.002765   -0.007085
C    -0.000565   -0.007287    0.123511    0.011216   -0.120109    0.016562
C    -1.097710    0.946771   -0.049465   -0.077743   -0.048303    0.027317
H     1.744499    1.224478    0.374432   -0.000878    0.004422   -0.000708
H     2.036046   -0.545294    0.492387   -0.011082   -0.006392   -0.019593
H     1.740605    0.240149   -1.088827    0.000193    0.013188   -0.010777
H    -1.637086    0.750477   -1.002626    0.267470    0.149292   -0.315022
H    -0.966351    2.026960    0.114908   -0.147384   -0.035794    0.222209
H    -1.775008    0.269412    0.575381   -0.731590    1.777390   -0.087053
10
* Frequency(6) -1944.9111
O    -0.452456   -1.117506    0.484466    0.086787    0.004517   -0.014332
C     1.472503    0.236284   -0.021150    0.003232    0.002765   -0.007085
C    -0.000458   -0.008430    0.123668    0.011216   -0.120109    0.016562
C    -1.098450    0.946312   -0.049205   -0.077743   -0.048303    0.027317
H     1.744491    1.224520    0.374425   -0.000878    0.004422   -0.000708
H     2.035941   -0.545354    0.492200   -0.011082   -0.006392   -0.019593
H     1.740606    0.240275   -1.088930    0.000193    0.013188   -0.010777
H    -1.634541    0.751898   -1.005623    0.267470    0.149292   -0.315022
H    -0.967754    2.026620    0.117022   -0.147384   -0.035794    0.222209
H    -1.781969    0.286323    0.574552   -0.731590    1.777390   -0.087053
10
* Frequency(6) -1944.9111
O    -0.454910   -1.117634    0.484871    0.086787    0.004517   -0.014332
C     1.472412    0.236206   -0.020949    0.003232    0.002765   -0.007085
C    -0.000775   -0.005033    0.123200    0.011216   -0.120109    0.016562
C    -1.096251    0.947678   -0.049978   -0.077743   -0.048303    0.027317
H     1.744516    1.224395    0.374445   -0.000878    0.004422   -0.000708
H     2.036254   -0.545174    0.492755   -0.011082   -0.006392   -0.019593
H     1.740601    0.239902   -1.088625    0.000193    0.013188   -0.010777
H    -1.642106    0.747675   -0.996713    0.267470    0.149292   -0.315022
H    -0.963585    2.027632    0.110737   -0.147384   -0.035794    0.222209
H    -1.761277    0.236051    0.577015   -0.731590    1.777390   -0.087053
10
* Frequency(6) -1944.9111
O    -0.460379   -1.117918    0.485774    0.086787    0.004517   -0.014332
C     1.472208    0.236031   -0.020503    0.003232    0.002765   -0.007085
C    -0.001482    0.002536    0.122156    0.011216   -0.120109    0.016562
C    -1.091352    0.950722   -0.051699   -0.077743   -0.048303    0.027317
H     1.744571    1.224116    0.374489   -0.000878    0.004422   -0.000708
H     2.036952   -0.544771    0.493989   -0.011082   -0.006392   -0.019593
H     1.740589    0.239071   -1.087946    0.000193    0.013188   -0.010777
H    -1.658961    0.738267   -0.976861    0.267470    0.149292   -0.315022
H    -0.954297    2.029888    0.096734   -0.147384   -0.035794    0.222209
H    -1.715174    0.124045    0.582501   -0.731590    1.777390   -0.087053
10
* Frequency(6) -1944.9111
O    -0.468270   -1.118329    0.487078    0.086787    0.004517   -0.014332
C     1.471914    0.235780   -0.019859    0.003232    0.002765   -0.007085
C    -0.002502    0.013457    0.120650    0.011216   -0.120109    0.016562
C    -1.084283    0.955113   -0.054183   -0.077743   -0.048303    0.027317
H     1.744651    1.223714    0.374554   -0.000878    0.004422   -0.000708
H     2.037960   -0.544190    0.495771   -0.011082   -0.006392   -0.019593
H     1.740571    0.237872   -1.086966    0.000193    0.013188   -0.010777
H    -1.683280    0.724693   -0.948219    0.267470    0.149292   -0.315022
H    -0.940897    2.033142    0.076530   -0.147384   -0.035794    0.222209
H    -1.648657   -0.037559    0.590416   -0.731590    1.777390   -0.087053
10
* Frequency(6) -1944.9111
O    -0.477728   -1.118821    0.488639    0.086787    0.004517   -0.014332
C     1.471562    0.235479   -0.019086    0.003232    0.002765   -0.007085
C    -0.003724    0.026545    0.118845    0.011216   -0.120109    0.016562
C    -1.075811    0.960377   -0.057160   -0.077743   -0.048303    0.027317
H     1.744747    1.223232    0.374631   -0.000878    0.004422   -0.000708
H     2.039168   -0.543493    0.497906   -0.011082   -0.006392   -0.019593
H     1.740550    0.236435   -1.085791    0.000193    0.013188   -0.010777
H    -1.712427    0.708424   -0.913890    0.267470    0.149292   -0.315022
H    -0.924836    2.037043    0.052316   -0.147384   -0.035794    0.222209
H    -1.568933   -0.231247    0.599902   -0.731590    1.777390   -0.087053
10
* Frequency(6) -1944.9111
O    -0.487727   -1.119341    0.490291    0.086787    0.004517   -0.014332
C     1.471190    0.235160   -0.018270    0.003232    0.002765   -0.007085
C    -0.005016    0.040384    0.116937    0.011216   -0.120109    0.016562
C    -1.066854    0.965942   -0.060307   -0.077743   -0.048303    0.027317
H     1.744848    1.222723    0.374712   -0.000878    0.004422   -0.000708
H     2.040444   -0.542757    0.500163   -0.011082   -0.006392   -0.019593
H     1.740528    0.234915   -1.084550    0.000193    0.013188   -0.010777
H    -1.743244    0.691223   -0.877594    0.267470    0.149292   -0.315022
H    -0.907855    2.041167    0.026714   -0.147384   -0.035794    0.222209
H    -1.484642   -0.436031    0.609932   -0.731590    1.777390   -0.087053
10
* Frequency(6) -1944.9111
O    -0.497184   -1.119834    0.491852    0.086787    0.004517   -0.014332
C     1.470837    0.234859   -0.017498    0.003232    0.002765   -0.007085
C    -0.006238    0.053472    0.115132    0.011216   -0.120109    0.016562
C    -1.058382    0.971206   -0.063284   -0.077743   -0.048303    0.027317
H     1.744943    1.222241    0.374790   -0.000878    0.004422   -0.000708
H     2.041652   -0.542060    0.502299   -0.011082   -0.006392   -0.019593
H     1.740507    0.233478   -1.083375    0.000193    0.013188   -0.010777
H    -1.772391    0.674955   -0.843265    0.267470    0.149292   -0.315022
H    -0.891794    2.045067    0.002499   -0.147384   -0.035794    0.222209
H    -1.404918   -0.629720    0.619419   -0.731590    1.777390   -0.087053
10
* Frequency(6) -1944.9111
O    -0.505075   -1.120244    0.493156    0.086787    0.004517   -0.014332
C     1.470544    0.234608   -0.016854    0.003232    0.002765   -0.007085
C    -0.007258    0.064393    0.113627    0.011216   -0.120109    0.016562
C    -1.051314    0.975598   -0.065768   -0.077743   -0.048303    0.027317
H     1.745023    1.221839    0.374854   -0.000878    0.004422   -0.000708
H     2.042660   -0.541479    0.504080   -0.011082   -0.006392   -0.019593
H     1.740490    0.232279   -1.082395    0.000193    0.013188   -0.010777
H    -1.796710    0.661381   -0.814623    0.267470    0.149292   -0.315022
H    -0.878394    2.048322   -0.017705   -0.147384   -0.035794    0.222209
H    -1.338400   -0.791323    0.627334   -0.731590    1.777390   -0.087053
10
* Frequency(6) -1944.9111
O    -0.510544   -1.120529    0.494059    0.086787    0.004517   -0.014332
C     1.470340    0.234433   -0.016407    0.003232    0.002765   -0.007085
C    -0.007965    0.071962    0.112583    0.011216   -0.120109    0.016562
C    -1.046414    0.978642   -0.067489   -0.077743   -0.048303    0.027317
H     1.745078    1.221560    0.374899   -0.000878    0.004422   -0.000708
H     2.043358   -0.541076    0.505315   -0.011082   -0.006392   -0.019593
H     1.740478    0.231448   -1.081716    0.000193    0.013188   -0.010777
H    -1.813565    0.651973   -0.794771    0.267470    0.149292   -0.315022
H    -0.869106    2.050577   -0.031708   -0.147384   -0.035794    0.222209
H    -1.292297   -0.903329    0.632819   -0.731590    1.777390   -0.087053
10
* Frequency(6) -1944.9111
O    -0.512999   -1.120657    0.494464    0.086787    0.004517   -0.014332
C     1.470249    0.234355   -0.016207    0.003232    0.002765   -0.007085
C    -0.008282    0.075359    0.112114    0.011216   -0.120109    0.016562
C    -1.044216    0.980008   -0.068262   -0.077743   -0.048303    0.027317
H     1.745103    1.221435    0.374919   -0.000878    0.004422   -0.000708
H     2.043672   -0.540895    0.505869   -0.011082   -0.006392   -0.019593
H     1.740472    0.231075   -1.081411    0.000193    0.013188   -0.010777
H    -1.821130    0.647750   -0.785861    0.267470    0.149292   -0.315022
H    -0.864937    2.051590   -0.037993   -0.147384   -0.035794    0.222209
H    -1.271605   -0.953601    0.635282   -0.731590    1.777390   -0.087053
10
* Frequency(6) -1944.9111
O    -0.512173   -1.120614    0.494328    0.086787    0.004517   -0.014332
C     1.470279    0.234381   -0.016274    0.003232    0.002765   -0.007085
C    -0.008175    0.074216    0.112272    0.011216   -0.120109    0.016562
C    -1.044955    0.979548   -0.068002   -0.077743   -0.048303    0.027317
H     1.745095    1.221477    0.374912   -0.000878    0.004422   -0.000708
H     2.043566   -0.540956    0.505682   -0.011082   -0.006392   -0.019593
H     1.740474    0.231200   -1.081514    0.000193    0.013188   -0.010777
H    -1.818585    0.649170   -0.788858    0.267470    0.149292   -0.315022
H    -0.866340    2.051249   -0.035879   -0.147384   -0.035794    0.222209
H    -1.278566   -0.936690    0.634453   -0.731590    1.777390   -0.087053
10
* Frequency(6) -1944.9111
O    -0.508157   -1.120405    0.493664    0.086787    0.004517   -0.014332
C     1.470429    0.234509   -0.016602    0.003232    0.002765   -0.007085
C    -0.007656    0.068657    0.113039    0.011216   -0.120109    0.016562
C    -1.048553    0.977313   -0.066738   -0.077743   -0.048303    0.027317
H     1.745054    1.221682    0.374879   -0.000878    0.004422   -0.000708
H     2.043053   -0.541252    0.504776   -0.011082   -0.006392   -0.019593
H     1.740483    0.231811   -1.082013    0.000193    0.013188   -0.010777
H    -1.806206    0.656080   -0.803438    0.267470    0.149292   -0.315022
H    -0.873161    2.049593   -0.025594   -0.147384   -0.035794    0.222209
H    -1.312425   -0.854429    0.630424   -0.731590    1.777390   -0.087053
10
* Frequency(6) -1944.9111
O    -0.501384   -1.120052    0.492546    0.086787    0.004517   -0.014332
C     1.470681    0.234725   -0.017155    0.003232    0.002765   -0.007085
C    -0.006781    0.059285    0.114331    0.011216   -0.120109    0.016562
C    -1.054620    0.973544   -0.064606   -0.077743   -0.048303    0.027317
H     1.744986    1.222027    0.374824   -0.000878    0.004422   -0.000708
H     2.042188   -0.541751    0.503247   -0.011082   -0.006392   -0.019593
H     1.740498    0.232840   -1.082854    0.000193    0.013188   -0.010777
H    -1.785335    0.667730   -0.828020    0.267470    0.149292   -0.315022
H    -0.884662    2.046800   -0.008255   -0.147384   -0.035794    0.222209
H    -1.369514   -0.715733    0.623631   -0.731590    1.777390   -0.087053
10
* Frequency(6) -1944.9111
O    -0.492590   -1.119595    0.491094    0.086787    0.004517   -0.014332
C     1.471008    0.235005   -0.017873    0.003232    0.002765   -0.007085
C    -0.005645    0.047114    0.116009    0.011216   -0.120109    0.016562
C    -1.062498    0.968649   -0.061838   -0.077743   -0.048303    0.027317
H     1.744897    1.222475    0.374752   -0.000878    0.004422   -0.000708
H     2.041065   -0.542398    0.501261   -0.011082   -0.006392   -0.019593
H     1.740517    0.234176   -1.083946    0.000193    0.013188   -0.010777
H    -1.758232    0.682858   -0.859941    0.267470    0.149292   -0.315022
H    -0.899596    2.043173    0.014262   -0.147384   -0.035794    0.222209
H    -1.443646   -0.535630    0.614810   -0.731590    1.777390   -0.087053
10
* Frequency(6) -1944.9111
O    -0.482727   -1.119081    0.489465    0.086787    0.004517   -0.014332
C     1.471376    0.235319   -0.018678    0.003232    0.002765   -0.007085
C    -0.004370    0.033465    0.117891    0.011216   -0.120109    0.016562
C    -1.071333    0.963160   -0.058734   -0.077743   -0.048303    0.027317
H     1.744797    1.222978    0.374672   -0.000878    0.004422   -0.000708
H     2.039806   -0.543125    0.499035   -0.011082   -0.006392   -0.019593
H     1.740539    0.235675   -1.085170    0.000193    0.013188   -0.010777
H    -1.727836    0.699824   -0.895742    0.267470    0.149292   -0.315022
H    -0.916345    2.039105    0.039515   -0.147384   -0.035794    0.222209
H    -1.526787   -0.333639    0.604917   -0.731590    1.777390   -0.087053
