10
Coordinates from ORCA-job acetone E -193.170795515368
  O      -0.502978     -3.466849     -1.400802
  C       1.167419     -3.130654     -3.096893
  C      -0.158060     -2.850736     -2.396956
  C      -1.029964     -1.760303     -3.009982
  H       1.830866     -2.259432     -2.991199
  H       1.648739     -4.007515     -2.654749
  H       1.017117     -3.284914     -4.174516
  H      -1.371342     -2.075440     -4.007102
  H      -0.454704     -0.834438     -3.150897
  H      -1.897682     -1.569660     -2.372273
