10
Coordinates from ORCA-job pr E -193.150984581180
  O      -0.402542     -1.209456      0.189760
  C       1.429489      0.288688      0.010242
  C      -0.062590      0.124001      0.033422
  C      -0.961001      1.114970     -0.077921
  H       1.704310      1.340066     -0.116461
  H       1.870686     -0.084982      0.944683
  H       1.864426     -0.296487     -0.811866
  H      -2.033782      0.926175     -0.053861
  H      -0.638046      2.143483     -0.202992
  H      -1.374869     -1.287047      0.192675
